123Bus teste/ieee123_Power_elem_kVA.txt

CIRCUIT ELEMENT POWER FLOW

(Power Flow into element from indicated Bus)

Power Delivery Elements

  Bus    Phase     kW     +j   kvar         kVA         PF

ELEMENT = "Vsource.SOURCE"
150          1      -471.6 +j   -480.0      672.9       0.7008
150          2       -73.0 +j   -299.4      308.2       0.2368
150          3      -377.8 +j   -374.4      531.9       0.7104
   TERMINAL TOTAL   -922.4 +j  -1153.8     1477.2       0.6244
150          0         0.0 +j      0.0        0.0       1.0000
150          0         0.0 +j      0.0        0.0       1.0000
150          0         0.0 +j      0.0        0.0       1.0000
   TERMINAL TOTAL      0.0 +j      0.0        0.0       1.0000

ELEMENT = "Transformer.REG1A"
150          1       471.6 +j    480.0      672.9       0.7008
150          2        73.0 +j    299.4      308.2       0.2368
150          3       377.8 +j    374.4      531.9       0.7104
150          0         0.0 +j      0.0        0.0       1.0000
   TERMINAL TOTAL    922.4 +j   1153.8     1477.2       0.6244
150R         1      -471.6 +j   -480.0      672.9       0.7008
150R         2       -73.0 +j   -299.4      308.2       0.2368
150R         3      -377.8 +j   -374.4      531.9       0.7104
150R         0         0.0 +j      0.0        0.0       1.0000
   TERMINAL TOTAL   -922.4 +j  -1153.8     1477.2       0.6244

ELEMENT = "Line.L115"
149          1       471.6 +j    480.0      672.9       0.7008
149          2        73.0 +j    299.4      308.2       0.2368
149          3       377.8 +j    374.4      531.9       0.7104
   TERMINAL TOTAL    922.4 +j   1153.8     1477.2       0.6244
1            1      -470.5 +j   -475.5      669.0       0.7034
1            2       -72.5 +j   -299.4      308.0       0.2355
1            3      -375.9 +j   -371.7      528.7       0.7111
   TERMINAL TOTAL   -919.0 +j  -1146.6     1469.5       0.6254

ELEMENT = "Line.L1"
1            2        19.8 +j      9.9       22.1       0.8944
   TERMINAL TOTAL     19.8 +j      9.9       22.1       0.8944
2            2       -19.8 +j     -9.9       22.1       0.8944
   TERMINAL TOTAL    -19.8 +j     -9.9       22.1       0.8944

ELEMENT = "Line.L2"
1            3       100.7 +j     50.5      112.7       0.8940
   TERMINAL TOTAL    100.7 +j     50.5      112.7       0.8940
3            3      -100.6 +j    -50.4      112.5       0.8943
   TERMINAL TOTAL   -100.6 +j    -50.4      112.5       0.8943

ELEMENT = "Line.L3"
1            1       431.0 +j    455.8      627.3       0.6871
1            2        52.8 +j    289.5      294.3       0.1793
1            3       275.2 +j    321.2      423.0       0.6506
   TERMINAL TOTAL    758.9 +j   1066.5     1309.0       0.5798
7            1      -430.1 +j   -452.8      624.5       0.6888
7            2       -52.5 +j   -289.5      294.2       0.1785
7            3      -274.2 +j   -320.0      421.4       0.6507
   TERMINAL TOTAL   -756.9 +j  -1062.3     1304.3       0.5803

ELEMENT = "Line.L4"
3            3        39.6 +j     19.8       44.3       0.8944
   TERMINAL TOTAL     39.6 +j     19.8       44.3       0.8944
4            3       -39.6 +j    -19.8       44.2       0.8944
   TERMINAL TOTAL    -39.6 +j    -19.8       44.2       0.8944

ELEMENT = "Line.L5"
3            3        61.0 +j     30.6       68.3       0.8942
   TERMINAL TOTAL     61.0 +j     30.6       68.3       0.8942
5            3       -61.0 +j    -30.5       68.2       0.8944
   TERMINAL TOTAL    -61.0 +j    -30.5       68.2       0.8944

ELEMENT = "Line.L6"
5            3        40.9 +j     20.4       45.7       0.8943
   TERMINAL TOTAL     40.9 +j     20.4       45.7       0.8943
6            3       -40.8 +j    -20.4       45.7       0.8944
   TERMINAL TOTAL    -40.8 +j    -20.4       45.7       0.8944

ELEMENT = "Line.L7"
7            1       410.4 +j    442.9      603.8       0.6797
7            2        52.5 +j    289.5      294.2       0.1785
7            3       274.2 +j    320.0      421.4       0.6507
   TERMINAL TOTAL    737.1 +j   1052.4     1284.8       0.5737
8            1      -409.9 +j   -441.0      602.1       0.6808
8            2       -52.4 +j   -289.4      294.1       0.1780
8            3      -273.6 +j   -319.2      420.4       0.6508
   TERMINAL TOTAL   -735.8 +j  -1049.7     1281.9       0.5740

ELEMENT = "Line.L8"
8            2        19.8 +j      9.9       22.1       0.8944
   TERMINAL TOTAL     19.8 +j      9.9       22.1       0.8944
12           2       -19.8 +j     -9.9       22.1       0.8944
   TERMINAL TOTAL    -19.8 +j     -9.9       22.1       0.8944

ELEMENT = "Line.L9"
8            1        99.4 +j     49.8      111.1       0.8940
   TERMINAL TOTAL     99.4 +j     49.8      111.1       0.8940
9            1       -99.2 +j    -49.7      111.0       0.8942
   TERMINAL TOTAL    -99.2 +j    -49.7      111.0       0.8942

ELEMENT = "Line.L10"
8            1       310.5 +j    391.2      499.5       0.6217
8            2        32.6 +j    279.6      281.4       0.1157
8            3       273.6 +j    319.2      420.4       0.6508
   TERMINAL TOTAL    616.7 +j    990.0     1166.3       0.5287
13           1      -310.1 +j   -389.5      497.8       0.6229
13           2       -32.2 +j   -279.4      281.3       0.1146
13           3      -272.8 +j   -317.9      418.9       0.6512
   TERMINAL TOTAL   -615.1 +j   -986.8     1162.8       0.5290

ELEMENT = "Line.L11"
9R           1        59.7 +j     29.9       66.8       0.8941
   TERMINAL TOTAL     59.7 +j     29.9       66.8       0.8941
14           1       -59.6 +j    -29.8       66.6       0.8944
   TERMINAL TOTAL    -59.6 +j    -29.8       66.6       0.8944

ELEMENT = "Line.L12"
13           3        13.2 +j     49.9       51.6       0.2559
   TERMINAL TOTAL     13.2 +j     49.9       51.6       0.2559
34           3       -13.2 +j    -49.9       51.6       0.2557
   TERMINAL TOTAL    -13.2 +j    -49.9       51.6       0.2557

ELEMENT = "Line.L13"
13           1         7.9 +j    284.5      284.6       0.0276
13           2      -130.0 +j    185.3      226.4      -0.5743
13           3        47.4 +j    184.6      190.5       0.2487
   TERMINAL TOTAL    -74.7 +j    654.4      658.6      -0.1135
18           1        -7.5 +j   -283.4      283.5       0.0264
18           2       130.5 +j   -184.5      226.0      -0.5777
18           3       -46.9 +j   -183.9      189.8       0.2473
   TERMINAL TOTAL     76.1 +j   -651.7      656.1      -0.1160

ELEMENT = "Line.L14"
14           1        39.8 +j     19.9       44.5       0.8943
   TERMINAL TOTAL     39.8 +j     19.9       44.5       0.8943
11           1       -39.7 +j    -19.9       44.4       0.8944
   TERMINAL TOTAL    -39.7 +j    -19.9       44.4       0.8944

ELEMENT = "Line.L15"
14           1        19.8 +j      9.9       22.2       0.8944
   TERMINAL TOTAL     19.8 +j      9.9       22.2       0.8944
10           1       -19.8 +j     -9.9       22.2       0.8944
   TERMINAL TOTAL    -19.8 +j     -9.9       22.2       0.8944

ELEMENT = "Line.L16"
15           3       -46.9 +j     19.8       50.9      -0.9211
   TERMINAL TOTAL    -46.9 +j     19.8       50.9      -0.9211
16           3        46.9 +j    -19.8       50.9      -0.9215
   TERMINAL TOTAL     46.9 +j    -19.8       50.9      -0.9215

ELEMENT = "Line.L17"
15           3        19.8 +j      9.9       22.1       0.8944
   TERMINAL TOTAL     19.8 +j      9.9       22.1       0.8944
17           3       -19.8 +j     -9.9       22.1       0.8944
   TERMINAL TOTAL    -19.8 +j     -9.9       22.1       0.8944

ELEMENT = "Line.L18"
18           1        -7.2 +j     39.7       40.3      -0.1782
   TERMINAL TOTAL     -7.2 +j     39.7       40.3      -0.1782
19           1         7.2 +j    -39.7       40.3      -0.1787
   TERMINAL TOTAL      7.2 +j    -39.7       40.3      -0.1787

ELEMENT = "Line.L19"
18           1       119.1 +j     60.1      133.4       0.8927
18           2       -44.9 +j     20.8       49.5      -0.9076
18           3        75.7 +j     59.6       96.4       0.7861
   TERMINAL TOTAL    149.9 +j    140.5      205.5       0.7297
21           1      -119.1 +j    -60.0      133.4       0.8932
21           2        45.0 +j    -20.8       49.6      -0.9079
21           3       -75.6 +j    -59.5       96.2       0.7861
   TERMINAL TOTAL   -149.8 +j   -140.2      205.2       0.7301

ELEMENT = "Line.L20"
19           1        39.7 +j     19.9       44.4       0.8943
   TERMINAL TOTAL     39.7 +j     19.9       44.4       0.8943
20           1       -39.7 +j    -19.9       44.4       0.8944
   TERMINAL TOTAL    -39.7 +j    -19.9       44.4       0.8944

ELEMENT = "Line.L21"
21           2       -45.0 +j     20.8       49.6      -0.9078
   TERMINAL TOTAL    -45.0 +j     20.8       49.6      -0.9078
22           2        45.0 +j    -20.7       49.6      -0.9084
   TERMINAL TOTAL     45.0 +j    -20.7       49.6      -0.9084

ELEMENT = "Line.L22"
21           1       119.1 +j     60.0      133.4       0.8932
21           2         0.0 +j     -0.0        0.0      -0.0648
21           3        75.6 +j     59.5       96.2       0.7861
   TERMINAL TOTAL    194.8 +j    119.4      228.5       0.8525
23           1      -119.1 +j    -59.8      133.3       0.8937
23           2        -0.0 +j      0.0        0.0      -0.0649
23           3       -75.6 +j    -59.4       96.1       0.7860
   TERMINAL TOTAL   -194.7 +j   -119.2      228.3       0.8528

ELEMENT = "Line.L23"
23           3        39.6 +j     19.8       44.3       0.8942
   TERMINAL TOTAL     39.6 +j     19.8       44.3       0.8942
24           3       -39.6 +j    -19.8       44.2       0.8944
   TERMINAL TOTAL    -39.6 +j    -19.8       44.2       0.8944

ELEMENT = "Line.L24"
23           1       119.1 +j     59.8      133.3       0.8937
23           2         0.0 +j     -0.0        0.0      -0.0649
23           3        36.0 +j     39.6       53.5       0.6722
   TERMINAL TOTAL    155.1 +j     99.4      184.2       0.8419
25           1      -119.1 +j    -59.7      133.2       0.8941
25           2        -0.0 +j      0.0        0.0      -0.0649
25           3       -35.9 +j    -39.6       53.5       0.6718
   TERMINAL TOTAL   -155.0 +j    -99.2      184.1       0.8422

ELEMENT = "Line.L25"
25R          1        39.7 +j     19.9       44.4       0.8939
25R          3        -3.7 +j     19.8       20.1      -0.1827
   TERMINAL TOTAL     36.0 +j     39.7       53.6       0.6718
26           1       -39.6 +j    -19.9       44.3       0.8941
26           3         3.7 +j    -19.8       20.1      -0.1830
   TERMINAL TOTAL    -36.0 +j    -39.6       53.5       0.6719

ELEMENT = "Line.L26"
25           1        79.4 +j     39.8       88.8       0.8942
25           2         0.0 +j     -0.0        0.0      -0.0649
25           3        39.6 +j     19.8       44.3       0.8943
   TERMINAL TOTAL    119.0 +j     59.6      133.1       0.8942
28           1       -79.4 +j    -39.7       88.8       0.8944
28           2        -0.0 +j      0.0        0.0      -0.0649
28           3       -39.6 +j    -19.8       44.3       0.8943
   TERMINAL TOTAL   -119.0 +j    -59.5      133.1       0.8944

ELEMENT = "Line.L27"
26           1        39.6 +j     19.9       44.3       0.8941
26           3        -0.0 +j     -0.0        0.0       0.1570
   TERMINAL TOTAL     39.6 +j     19.9       44.3       0.8941
27           1       -39.6 +j    -19.8       44.3       0.8943
27           3         0.0 +j     -0.0        0.0      -0.5005
   TERMINAL TOTAL    -39.6 +j    -19.8       44.3       0.8943

ELEMENT = "Line.L28"
26           3        -3.7 +j     19.8       20.1      -0.1830
   TERMINAL TOTAL     -3.7 +j     19.8       20.1      -0.1830
31           3         3.7 +j    -19.8       20.1      -0.1832
   TERMINAL TOTAL      3.7 +j    -19.8       20.1      -0.1832

ELEMENT = "Line.L29"
27           1        39.6 +j     19.8       44.3       0.8943
   TERMINAL TOTAL     39.6 +j     19.8       44.3       0.8943
33           1       -39.6 +j    -19.8       44.3       0.8944
   TERMINAL TOTAL    -39.6 +j    -19.8       44.3       0.8944

ELEMENT = "Line.L30"
28           1        39.8 +j     19.9       44.5       0.8943
28           2         0.0 +j     -0.0        0.0      -0.0649
28           3        39.6 +j     19.8       44.3       0.8943
   TERMINAL TOTAL     79.3 +j     39.7       88.7       0.8943
29           1       -39.8 +j    -19.9       44.4       0.8945
29           2        -0.0 +j      0.0        0.0      -0.0650
29           3       -39.6 +j    -19.8       44.2       0.8943
   TERMINAL TOTAL    -79.3 +j    -39.7       88.7       0.8944

ELEMENT = "Line.L31"
29           1         0.0 +j     -0.0        0.0      -0.0708
29           2         0.0 +j     -0.0        0.0      -0.0650
29           3        39.6 +j     19.8       44.2       0.8943
   TERMINAL TOTAL     39.6 +j     19.8       44.2       0.8944
30           1        -0.0 +j      0.0        0.0      -0.0707
30           2        -0.0 +j      0.0        0.0      -0.0652
30           3       -39.6 +j    -19.8       44.2       0.8944
   TERMINAL TOTAL    -39.6 +j    -19.8       44.2       0.8945

ELEMENT = "Line.L32"
30           1         0.0 +j     -0.0        0.0      -0.0707
30           2         0.0 +j     -0.0        0.0      -0.0652
30           3        -0.0 +j     -0.0        0.0       0.1367
   TERMINAL TOTAL     -0.0 +j     -0.0        0.0       0.0000
250          1        -0.0 +j      0.0        0.0      -0.3400
250          2         0.0 +j      0.0        0.0       0.4920
250          3         0.0 +j      0.0        0.0       0.8662
   TERMINAL TOTAL      0.0 +j      0.0        0.0       0.1310

ELEMENT = "Line.L33"
31           3        19.8 +j      9.9       22.1       0.8944
   TERMINAL TOTAL     19.8 +j      9.9       22.1       0.8944
32           3       -19.8 +j     -9.9       22.1       0.8944
   TERMINAL TOTAL    -19.8 +j     -9.9       22.1       0.8944

ELEMENT = "Line.L34"
34           3       -27.1 +j     29.7       40.2      -0.6738
   TERMINAL TOTAL    -27.1 +j     29.7       40.2      -0.6738
15           3        27.1 +j    -29.7       40.2      -0.6740
   TERMINAL TOTAL     27.1 +j    -29.7       40.2      -0.6740

ELEMENT = "Line.L35"
35           1        39.8 +j     19.9       44.5       0.8942
35           2        40.0 +j     20.0       44.7       0.8940
   TERMINAL TOTAL     79.8 +j     40.0       89.2       0.8941
36           1       -39.8 +j    -19.9       44.5       0.8943
36           2       -40.0 +j    -20.0       44.7       0.8943
   TERMINAL TOTAL    -79.8 +j    -39.9       89.2       0.8943

ELEMENT = "Line.L36"
35           1      -127.1 +j    139.7      188.9      -0.6731
35           2       -96.1 +j    147.1      175.7      -0.5471
35           3       -28.8 +j    124.2      127.5      -0.2259
   TERMINAL TOTAL   -252.1 +j    411.0      482.2      -0.5228
40           1       127.3 +j   -139.5      188.9      -0.6740
40           2        96.2 +j   -146.9      175.6      -0.5478
40           3        28.8 +j   -124.2      127.4      -0.2260
   TERMINAL TOTAL    252.3 +j   -410.6      481.9      -0.5235

ELEMENT = "Line.L37"
36           1        39.8 +j     19.9       44.5       0.8943
   TERMINAL TOTAL     39.8 +j     19.9       44.5       0.8943
37           1       -39.7 +j    -19.9       44.4       0.8944
   TERMINAL TOTAL    -39.7 +j    -19.9       44.4       0.8944

ELEMENT = "Line.L38"
36           2        40.0 +j     20.0       44.7       0.8943
   TERMINAL TOTAL     40.0 +j     20.0       44.7       0.8943
38           2       -40.0 +j    -20.0       44.7       0.8944
   TERMINAL TOTAL    -40.0 +j    -20.0       44.7       0.8944

ELEMENT = "Line.L39"
38           2        19.8 +j      9.9       22.1       0.8944
   TERMINAL TOTAL     19.8 +j      9.9       22.1       0.8944
39           2       -19.8 +j     -9.9       22.1       0.8944
   TERMINAL TOTAL    -19.8 +j     -9.9       22.1       0.8944

ELEMENT = "Line.L40"
40           3        19.8 +j      9.9       22.1       0.8944
   TERMINAL TOTAL     19.8 +j      9.9       22.1       0.8944
41           3       -19.8 +j     -9.9       22.1       0.8944
   TERMINAL TOTAL    -19.8 +j     -9.9       22.1       0.8944

ELEMENT = "Line.L41"
40           1      -127.3 +j    139.5      188.9      -0.6740
40           2       -96.2 +j    146.9      175.6      -0.5478
40           3       -48.6 +j    114.3      124.2      -0.3913
   TERMINAL TOTAL   -272.1 +j    400.7      484.3      -0.5618
42           1       127.5 +j   -139.3      188.8      -0.6750
42           2        96.2 +j   -146.7      175.4      -0.5484
42           3        48.6 +j   -114.2      124.1      -0.3915
   TERMINAL TOTAL    272.3 +j   -400.2      484.1      -0.5625

ELEMENT = "Line.L42"
42           2       -45.3 +j     20.6       49.8      -0.9100
   TERMINAL TOTAL    -45.3 +j     20.6       49.8      -0.9100
43           2        45.3 +j    -20.6       49.8      -0.9105
   TERMINAL TOTAL     45.3 +j    -20.6       49.8      -0.9105

ELEMENT = "Line.L43"
42           1      -147.3 +j    129.4      196.1      -0.7511
42           2       -50.9 +j    126.1      136.0      -0.3746
42           3       -48.6 +j    114.2      124.1      -0.3915
   TERMINAL TOTAL   -246.8 +j    369.7      444.5      -0.5552
44           1       147.4 +j   -129.2      196.0      -0.7519
44           2        50.9 +j   -126.0      135.9      -0.3749
44           3        48.6 +j   -114.2      124.1      -0.3917
   TERMINAL TOTAL    246.9 +j   -369.4      444.3      -0.5558

ELEMENT = "Line.L44"
44           1        -3.6 +j     19.8       20.1      -0.1793
   TERMINAL TOTAL     -3.6 +j     19.8       20.1      -0.1793
45           1         3.6 +j    -19.8       20.1      -0.1795
   TERMINAL TOTAL      3.6 +j    -19.8       20.1      -0.1795

ELEMENT = "Line.L45"
44           1      -143.8 +j    109.4      180.7      -0.7958
44           2       -50.9 +j    126.0      135.9      -0.3749
44           3       -48.6 +j    114.2      124.1      -0.3917
   TERMINAL TOTAL   -243.3 +j    349.5      425.9      -0.5713
47           1       144.0 +j   -109.2      180.7      -0.7967
47           2        50.9 +j   -125.8      135.7      -0.3753
47           3        48.6 +j   -114.1      124.0      -0.3919
   TERMINAL TOTAL    243.5 +j   -349.2      425.7      -0.5721

ELEMENT = "Line.L46"
45           1        19.8 +j      9.9       22.1       0.8944
   TERMINAL TOTAL     19.8 +j      9.9       22.1       0.8944
46           1       -19.8 +j     -9.9       22.1       0.8944
   TERMINAL TOTAL    -19.8 +j     -9.9       22.1       0.8944

ELEMENT = "Line.L47"
47           1       -81.7 +j     49.8       95.7      -0.8540
47           2       -79.7 +j     51.2       94.8      -0.8415
47           3       -81.8 +j     49.7       95.7      -0.8545
   TERMINAL TOTAL   -243.3 +j    150.7      286.1      -0.8501
48           1        81.7 +j    -49.7       95.7      -0.8542
48           2        79.8 +j    -51.2       94.8      -0.8417
48           3        81.8 +j    -49.7       95.7      -0.8547
   TERMINAL TOTAL    243.3 +j   -150.6      286.1      -0.8503

ELEMENT = "Line.L48"
47           1       -21.3 +j     34.6       40.6      -0.5234
47           2        69.3 +j     49.5       85.1       0.8137
47           3        74.2 +j     39.6       84.1       0.8821
   TERMINAL TOTAL    122.2 +j    123.7      173.9       0.7026
49           1        21.3 +j    -34.6       40.6      -0.5239
49           2       -69.2 +j    -49.4       85.1       0.8138
49           3       -74.2 +j    -39.6       84.1       0.8823
   TERMINAL TOTAL   -122.1 +j   -123.6      173.8       0.7028

ELEMENT = "Line.L49"
49           1        19.8 +j      9.9       22.1       0.8944
49           2        -0.0 +j     -0.0        0.0       0.3739
49           3        39.6 +j     19.8       44.2       0.8944
   TERMINAL TOTAL     59.3 +j     29.7       66.4       0.8944
50           1       -19.8 +j     -9.9       22.1       0.8945
50           2         0.0 +j      0.0        0.0       0.3738
50           3       -39.6 +j    -19.8       44.2       0.8945
   TERMINAL TOTAL    -59.3 +j    -29.7       66.3       0.8945

ELEMENT = "Line.L50"
50           1        19.8 +j      9.9       22.1       0.8945
50           2        -0.0 +j     -0.0        0.0       0.3738
50           3         0.0 +j     -0.0        0.0      -0.1409
   TERMINAL TOTAL     19.8 +j      9.9       22.1       0.8946
51           1       -19.8 +j     -9.9       22.1       0.8945
51           2         0.0 +j      0.0        0.0       0.3738
51           3        -0.0 +j      0.0        0.0      -0.1409
   TERMINAL TOTAL    -19.8 +j     -9.9       22.1       0.8946

ELEMENT = "Line.L51"
51           1         0.0 +j     -0.0        0.0      -0.3013
51           2        -0.0 +j     -0.0        0.0       0.3738
51           3         0.0 +j     -0.0        0.0      -0.1409
   TERMINAL TOTAL     -0.0 +j     -0.0        0.0       0.0000
151          1         0.0 +j     -0.0        0.0      -1.0000
151          2         0.0 +j     -0.0        0.0      -1.0000
151          3         0.0 +j     -0.0        0.0      -1.0000
   TERMINAL TOTAL      0.0 +j     -0.0        0.0      -1.0000

ELEMENT = "Line.L52"
52           1       262.2 +j     84.1      275.4       0.9522
52           2       162.2 +j     94.0      187.5       0.8653
52           3       211.9 +j     83.0      227.6       0.9311
   TERMINAL TOTAL    636.3 +j    261.1      687.8       0.9251
53           1      -262.1 +j    -83.8      275.1       0.9525
53           2      -162.2 +j    -93.9      187.4       0.8654
53           3      -211.7 +j    -82.8      227.3       0.9313
   TERMINAL TOTAL   -636.0 +j   -260.4      687.3       0.9254

ELEMENT = "Line.L53"
53           1       309.0 +j     64.0      315.6       0.9792
53           2       162.2 +j     93.9      187.4       0.8654
53           3       211.7 +j     82.8      227.3       0.9313
   TERMINAL TOTAL    682.9 +j    240.7      724.1       0.9432
54           1      -308.9 +j    -63.7      315.4       0.9794
54           2      -162.2 +j    -93.9      187.4       0.8655
54           3      -211.6 +j    -82.7      227.2       0.9315
   TERMINAL TOTAL   -682.7 +j   -240.2      723.7       0.9433

ELEMENT = "Line.L54"
54           1        20.0 +j     10.0       22.3       0.8944
54           2       -23.5 +j      9.9       25.5      -0.9214
54           3         0.0 +j     -0.0        0.0      -0.0661
   TERMINAL TOTAL     -3.5 +j     19.9       20.2      -0.1725
55           1       -20.0 +j    -10.0       22.3       0.8945
55           2        23.5 +j     -9.9       25.5      -0.9215
55           3        -0.0 +j      0.0        0.0      -0.0661
   TERMINAL TOTAL      3.5 +j    -19.9       20.2      -0.1727

ELEMENT = "Line.L55"
54           1       288.9 +j     53.7      293.9       0.9832
54           2       185.6 +j     84.0      203.7       0.9111
54           3       211.6 +j     82.7      227.2       0.9315
   TERMINAL TOTAL    686.2 +j    220.3      720.7       0.9521
57           1      -288.7 +j    -52.9      293.5       0.9836
57           2      -185.5 +j    -83.8      203.5       0.9114
57           3      -211.3 +j    -82.3      226.8       0.9318
   TERMINAL TOTAL   -685.5 +j   -218.9      719.7       0.9526

ELEMENT = "Line.L56"
55           1        -0.0 +j     -0.0        0.0       0.1467
55           2       -23.5 +j      9.9       25.5      -0.9215
55           3         0.0 +j     -0.0        0.0      -0.0661
   TERMINAL TOTAL    -23.5 +j      9.9       25.5      -0.9215
56           1        -0.0 +j      0.0        0.0      -0.3381
56           2        23.5 +j     -9.9       25.5      -0.9215
56           3         0.0 +j      0.0        0.0       0.8681
   TERMINAL TOTAL     23.5 +j     -9.9       25.5      -0.9215

ELEMENT = "Line.L57"
57           2       -46.5 +j     20.0       50.6      -0.9183
   TERMINAL TOTAL    -46.5 +j     20.0       50.6      -0.9183
58           2        46.5 +j    -20.0       50.6      -0.9186
   TERMINAL TOTAL     46.5 +j    -20.0       50.6      -0.9186

ELEMENT = "Line.L58"
57           1       288.7 +j     52.9      293.5       0.9836
57           2       232.0 +j     63.7      240.6       0.9643
57           3       211.3 +j     82.3      226.8       0.9318
   TERMINAL TOTAL    732.0 +j    198.9      758.5       0.9650
60           1      -288.1 +j    -51.2      292.6       0.9846
60           2      -231.6 +j    -63.0      240.0       0.9650
60           3      -210.9 +j    -81.7      226.1       0.9324
   TERMINAL TOTAL   -730.5 +j   -195.9      756.3       0.9659

ELEMENT = "Line.L59"
58           2       -23.5 +j      9.9       25.5      -0.9214
   TERMINAL TOTAL    -23.5 +j      9.9       25.5      -0.9214
59           2        23.5 +j     -9.9       25.5      -0.9215
   TERMINAL TOTAL     23.5 +j     -9.9       25.5      -0.9215

ELEMENT = "Line.L60"
60           1        -0.0 +j     -0.0        0.0       0.0851
60           2         0.0 +j     -0.0        0.0      -0.1427
60           3        -0.0 +j     -0.0        0.0       0.0609
   TERMINAL TOTAL      0.0 +j     -0.0        0.0      -0.0002
61           1        -0.0 +j     -0.0        0.0       0.0292
61           2        -0.0 +j     -0.0        0.0       0.0317
61           3        -0.0 +j     -0.0        0.0       0.0291
   TERMINAL TOTAL     -0.0 +j     -0.0        0.0       0.0300

ELEMENT = "Line.L61"
60           1        -1.7 +j     66.2       66.2      -0.0251
60           2        72.7 +j     82.2      109.8       0.6624
60           3       135.9 +j     60.6      148.8       0.9133
   TERMINAL TOTAL    206.9 +j    209.0      294.2       0.7035
62           1         1.7 +j    -66.2       66.3      -0.0257
62           2       -72.5 +j    -82.2      109.7       0.6616
62           3      -135.7 +j    -60.4      148.5       0.9135
   TERMINAL TOTAL   -206.5 +j   -208.9      293.8       0.7031

ELEMENT = "Line.L62"
62           1        -1.7 +j     66.2       66.3      -0.0257
62           2        72.5 +j     82.2      109.7       0.6616
62           3        96.2 +j     40.7      104.4       0.9210
   TERMINAL TOTAL    167.0 +j    189.1      252.3       0.6619
63           1         1.7 +j    -66.3       66.3      -0.0262
63           2       -72.4 +j    -82.2      109.6       0.6611
63           3       -96.1 +j    -40.6      104.3       0.9212
   TERMINAL TOTAL   -166.8 +j   -189.1      252.1       0.6616

ELEMENT = "Line.L63"
63           1        45.2 +j     46.5       64.8       0.6972
63           2        72.4 +j     82.2      109.6       0.6611
63           3        96.1 +j     40.6      104.3       0.9212
   TERMINAL TOTAL    213.8 +j    169.3      272.7       0.7839
64           1       -45.2 +j    -46.5       64.8       0.6967
64           2       -72.2 +j    -82.2      109.4       0.6602
64           3       -96.0 +j    -40.5      104.2       0.9213
   TERMINAL TOTAL   -213.4 +j   -169.2      272.3       0.7836

ELEMENT = "Line.L64"
64           1        45.2 +j     46.5       64.8       0.6967
64           2        -3.1 +j     47.0       47.1      -0.0666
64           3        96.0 +j     40.5      104.2       0.9213
   TERMINAL TOTAL    138.0 +j    134.0      192.4       0.7174
65           1       -45.1 +j    -46.5       64.8       0.6966
65           2         3.2 +j    -47.0       47.1      -0.0678
65           3       -95.8 +j    -40.4      104.0       0.9213
   TERMINAL TOTAL   -137.7 +j   -134.0      192.1       0.7168

ELEMENT = "Line.L65"
65           1         0.0 +j     -0.0        0.0      -0.0002
65           2        -0.0 +j     -0.0        0.0       0.0002
65           3        74.3 +j     34.6       82.0       0.9063
   TERMINAL TOTAL     74.3 +j     34.6       81.9       0.9065
66           1        -0.0 +j     -0.0        0.0       0.7868
66           2        -0.0 +j      0.0        0.0      -0.6886
66           3       -74.2 +j    -34.6       81.9       0.9062
   TERMINAL TOTAL    -74.2 +j    -34.6       81.9       0.9062

ELEMENT = "Line.L66"
67           1       119.0 +j     59.7      133.2       0.8939
   TERMINAL TOTAL    119.0 +j     59.7      133.2       0.8939
68           1      -118.9 +j    -59.6      133.0       0.8941
   TERMINAL TOTAL   -118.9 +j    -59.6      133.0       0.8941

ELEMENT = "Line.L67"
67           1        12.1 +j   -177.7      178.1      -0.0681
67           2       212.9 +j    -79.1      227.1      -0.9374
67           3       150.4 +j    -49.5      158.3      -0.9499
   TERMINAL TOTAL    375.4 +j   -306.2      484.5      -0.7749
72           1       -12.1 +j    177.9      178.3      -0.0680
72           2      -212.7 +j     79.3      227.0      -0.9370
72           3      -150.3 +j     49.7      158.3      -0.9495
   TERMINAL TOTAL   -375.1 +j    306.9      484.7      -0.7740

ELEMENT = "Line.L68"
67           1       181.5 +j     92.1      203.6       0.8918
67           2       -53.9 +j     59.6       80.4      -0.6711
67           3       -75.5 +j     70.6      103.4      -0.7305
   TERMINAL TOTAL     52.1 +j    222.3      228.3       0.2280
97           1      -181.4 +j    -91.7      203.3       0.8924
97           2        54.0 +j    -59.6       80.4      -0.6714
97           3        75.6 +j    -70.5      103.3      -0.7314
   TERMINAL TOTAL    -51.8 +j   -221.8      227.8       0.2276

ELEMENT = "Line.L69"
68           1        99.1 +j     49.7      110.9       0.8940
   TERMINAL TOTAL     99.1 +j     49.7      110.9       0.8940
69           1       -99.0 +j    -49.5      110.7       0.8943
   TERMINAL TOTAL    -99.0 +j    -49.5      110.7       0.8943

ELEMENT = "Line.L70"
69           1        59.4 +j     29.7       66.5       0.8942
   TERMINAL TOTAL     59.4 +j     29.7       66.5       0.8942
70           1       -59.4 +j    -29.7       66.4       0.8944
   TERMINAL TOTAL    -59.4 +j    -29.7       66.4       0.8944

...